
#comment start by #

#transistor
[generic-npn]
.model generic-npn npn

[generic-pnp]
.model generic-pnp pnp

[1N4007]
.MODEL 1N4007 d (
+IS=3.19863e-08 RS=0.0428545 N=2 EG=0.784214
+XTI=0.504749 BV=1100 IBV=0.0001 CJO=4.67478e-11
+VJ=0.4 M=0.469447 FC=0.5 TT=8.86839e-06
+KF=0 AF=1 )
