
[led]
.SUBCKT LED  K A
D1 1 A  LED_mod
V  K  1  DC 0
.MODEL LED_mod D (
+ IS=1.112e-021 N=3.007e+000 RS=3.513e-003
+ BV=6.100e+001 IBV=6.000e-003
+ EG=1.110e+000 XTI=3.000e+000 
+ CJO=3.238e-011, M=3.388e-001 VJ=3.250e-001
+ FC=5.000e-001 KF=0.000e+000 AF=1.000e+000 )
.ENDS

[spst]
.subckt spst 1 2 Params: VStatus=0 Ron=1e-8 Roff=1e30
R1 0 6 20 
V1 6 0 DC {Vstatus}
W1 1 2 V1 NO_contact 
.MODEL NO_contact csw (IT=0.05 IH=0.025 RON={Ron} ROFF={Roff})
.ENDS

[spdt]
.subckt spdt 1 2 3 Params: VStatus=0 Ron=1e-8 Roff=1e30
R1 0 6 20
V1 6 0 DC {Vstatus}
W0 2 1 V1 NC_contact 
W1 2 3 V1 NO_contact
.MODEL NO_contact csw (IT=0.05 IH=0.025 RON={Ron} ROFF={Roff})
.MODEL NC_contact csw (IT=0.05 IH=0.025 RON={Roff} ROFF={Ron})
.ENDS

